LIST_COMPILE=PSD_PreProcess.cpp

PSD_PREPROCESSOR_HPP_LIST = ControlParameters.hpp \
FemParameters.hpp \
HeaderMacro.hpp \
Help.hpp \
LinearFormBuilderAndSolver_DamageMechanics.hpp \
LinearFormBuilderAndSolver_ElastoDynamics.hpp \
LinearFormBuilderAndSolver.hpp \
LinearFormBuilderAndSolver_LinearElasticity.hpp \
LinearFormBuilderAndSolver_SoilDynamics.hpp \
Macros.hpp \
Main.hpp \
Mesh.hpp \
OtherParameters.hpp \
PostProcessor.hpp \
PSD_PreProcess.cpp \
VariationalFormulation_DamageMechanics.hpp \
VariationalFormulation_ElastoDynamics.hpp \
VariationalFormulation.hpp \
VariationalFormulation_LinearElasticity.hpp \
VariationalFormulation_SoilDynamics.hpp
	
all: PSD_PreProcess 
	@echo ""
	@echo "*============================================================*"
	@echo " Compilation done in :"; pwd
	@echo "*============================================================*"
	@echo ""
	@echo " Compilation list $(LIST_COMPILE)"


PSD_PreProcess: PSD_PreProcess.o
	$(CXX) -o PSD_PreProcess PSD_PreProcess.o
	@echo ""	


PSD_PreProcess.o: $(PSD_PREPROCESSOR_HPP_LIST)
	$(CXX) -c PSD_PreProcess.cpp -std=c++11	

install:
	cp PSD_PreProcess ./../Solver/.
	
	
clean-local:
	@echo ""
	@echo "*============================================================*"
	@echo " Cleaning files in :"; pwd
	@echo "*============================================================*"
	@echo ""
	rm  -f *~  PSD_PreProcess *.o *.edp 
	rm  -rf VTUs
	@echo ""
